Version 4
SHEET 1 1104 680
WIRE 144 32 16 32
WIRE 288 32 240 32
WIRE 384 32 352 32
WIRE 944 32 384 32
WIRE 16 144 16 32
WIRE 384 144 384 32
WIRE 528 144 384 144
WIRE 944 144 784 144
WIRE 384 176 384 144
WIRE 16 384 16 224
WIRE 224 384 224 80
WIRE 224 384 16 384
WIRE 384 384 384 240
WIRE 384 384 224 384
WIRE 656 384 656 240
WIRE 656 384 384 384
WIRE 384 448 384 384
FLAG 384 448 0
FLAG 944 32 12V_Rail
IOPIN 944 32 Out
FLAG 944 144 5V_Rail
IOPIN 944 144 Out
SYMBOL voltage 16 128 R0
SYMATTR InstName V_IN
SYMATTR Value 12V
SYMBOL pmos 144 80 R270
SYMATTR InstName M1
SYMATTR Value IRF9530
SYMBOL Misc\\jumper 320 -32 R0
SYMATTR InstName Fuse
SYMBOL cap 368 176 R0
SYMATTR InstName C1
SYMATTR Value 1000µ
SYMBOL USB_VOL_REG 656 144 R0
SYMATTR InstName U1
TEXT 240 -48 Left 1 ;Power Input protection
TEXT 392 256 Left 1 ;Smoothing Cap
