Version 4
SHEET 1 1096 680
WIRE 736 -192 480 -192
WIRE 480 -128 480 -192
WIRE 480 -16 480 -64
WIRE 288 32 144 32
WIRE 416 32 368 32
WIRE 736 48 736 -192
WIRE 480 320 480 80
WIRE 736 320 736 128
WIRE 736 320 480 320
WIRE 480 368 480 320
FLAG 480 368 0
FLAG 144 32 Signal_in
IOPIN 144 32 In
SYMBOL voltage 736 32 R0
SYMATTR InstName V1
SYMATTR Value 12V
SYMBOL AutoGenerated\\Tweeter 480 -96 R0
SYMATTR InstName U1
SYMBOL npn 416 -16 R0
SYMATTR InstName Q1
SYMATTR Value 2N2222 NPN
SYMBOL res 384 16 R90
WINDOW 0 0 56 VBottom 2
WINDOW 3 32 56 VTop 2
SYMATTR InstName R1
SYMATTR Value 1K
